
     RDKit          3D

 42 45  0  0  0  0  0  0  0  0999 V2000
    6.3989    1.6246   -4.3887 Br  0  0  0  0  0  0  0  0  0  0  0  0
    6.0026    1.1355   -2.6050 C   0  0  0  0  0  0  0  0  0  0  0  0
    6.9811    1.2585   -1.6236 C   0  0  0  0  0  0  0  0  0  0  0  0
    6.6753    0.9153   -0.3098 C   0  0  0  0  0  0  0  0  0  0  0  0
    5.3995    0.4407    0.0120 C   0  0  0  0  0  0  0  0  0  0  0  0
    4.4164    0.2756   -0.9722 C   0  0  0  0  0  0  0  0  0  0  0  0
    3.0969   -0.1349   -0.6729 N   0  0  0  0  0  0  0  0  0  0  0  0
    2.6492   -0.9672    0.3897 C   0  0  0  0  0  0  0  0  0  0  0  0
    3.5445   -1.6941    1.0832 N   0  0  0  0  0  0  0  0  0  0  0  0
    3.0685   -2.4896    2.0443 C   0  0  0  0  0  0  0  0  0  0  0  0
    1.7845   -2.6314    2.3835 N   0  0  0  0  0  0  0  0  0  0  0  0
    0.9018   -1.8909    1.6959 C   0  0  0  0  0  0  0  0  0  0  0  0
   -0.4533   -1.9586    1.9677 C   0  0  0  0  0  0  0  0  0  0  0  0
   -1.4327   -1.2527    1.3424 N   0  0  0  0  0  0  0  0  0  0  0  0
   -1.0650   -0.3912    0.3831 C   0  0  0  0  0  0  0  0  0  0  0  0
   -2.0209    0.3596   -0.3199 N   0  0  0  0  0  0  0  0  0  0  0  0
   -3.3975    0.2026    0.1717 C   0  0  0  0  0  0  0  0  0  0  0  0
   -4.3607    0.9735   -0.7348 C   0  0  0  0  0  0  0  0  0  0  0  0
   -5.7680    0.8790   -0.2639 C   0  0  0  0  0  0  0  0  0  0  0  0
   -6.7649    0.0149   -0.6642 C   0  0  0  0  0  0  0  0  0  0  0  0
   -7.8570    0.3535    0.0855 N   0  0  0  0  0  0  0  0  0  0  0  0
   -7.4938    1.3904    0.8958 C   0  0  0  0  0  0  0  0  0  0  0  0
   -6.2399    1.7308    0.7077 N   0  0  0  0  0  0  0  0  0  0  0  0
    0.2699   -0.2573    0.0199 C   0  0  0  0  0  0  0  0  0  0  0  0
    1.2709   -1.0172    0.6748 C   0  0  0  0  0  0  0  0  0  0  0  0
    4.7280    0.6615   -2.2852 C   0  0  0  0  0  0  0  0  0  0  0  0
    7.9733    1.6280   -1.8672 H   0  0  0  0  0  0  0  0  0  0  0  0
    7.4239    1.0220    0.4711 H   0  0  0  0  0  0  0  0  0  0  0  0
    5.1825    0.2063    1.0511 H   0  0  0  0  0  0  0  0  0  0  0  0
    2.5850   -0.3804   -1.5148 H   0  0  0  0  0  0  0  0  0  0  0  0
    3.7926   -3.0771    2.5984 H   0  0  0  0  0  0  0  0  0  0  0  0
   -0.8112   -2.6271    2.7470 H   0  0  0  0  0  0  0  0  0  0  0  0
   -1.7404    1.3376   -0.3068 H   0  0  0  0  0  0  0  0  0  0  0  0
   -3.4736    0.5771    1.2010 H   0  0  0  0  0  0  0  0  0  0  0  0
   -3.6857   -0.8570    0.1717 H   0  0  0  0  0  0  0  0  0  0  0  0
   -4.2869    0.5941   -1.7618 H   0  0  0  0  0  0  0  0  0  0  0  0
   -4.0667    2.0300   -0.7764 H   0  0  0  0  0  0  0  0  0  0  0  0
   -6.7886   -0.7848   -1.3909 H   0  0  0  0  0  0  0  0  0  0  0  0
   -8.7691   -0.0804    0.0517 H   0  0  0  0  0  0  0  0  0  0  0  0
   -8.1786    1.8514    1.5949 H   0  0  0  0  0  0  0  0  0  0  0  0
    0.5329    0.4403   -0.7690 H   0  0  0  0  0  0  0  0  0  0  0  0
    3.9765    0.5893   -3.0665 H   0  0  0  0  0  0  0  0  0  0  0  0
  1  2  1  0
  2  3  2  0
  3  4  1  0
  4  5  2  0
  5  6  1  0
  6  7  1  0
  7  8  1  0
  8  9  2  0
  9 10  1  0
 10 11  2  0
 11 12  1  0
 12 13  2  0
 13 14  1  0
 14 15  2  0
 15 16  1  0
 16 17  1  0
 17 18  1  0
 18 19  1  0
 19 20  2  0
 20 21  1  0
 21 22  1  0
 22 23  2  0
 15 24  1  0
 24 25  2  0
  6 26  2  0
 26  2  1  0
 25  8  1  0
 25 12  1  0
 23 19  1  0
  3 27  1  0
  4 28  1  0
  5 29  1  0
  7 30  1  0
 10 31  1  0
 13 32  1  0
 16 33  1  0
 17 34  1  0
 17 35  1  0
 18 36  1  0
 18 37  1  0
 20 38  1  0
 21 39  1  0
 22 40  1  0
 24 41  1  0
 26 42  1  0
M  END
$$$$
