
     RDKit          3D

 51 53  0  0  0  0  0  0  0  0999 V2000
   -2.1035   -2.7671    3.3507 C   0  0  0  0  0  0  0  0  0  0  0  0
   -0.8246   -2.2052    2.7931 C   0  0  0  0  0  0  0  0  0  0  0  0
    0.3848   -2.4173    3.4766 C   0  0  0  0  0  0  0  0  0  0  0  0
    1.5991   -1.9351    3.0081 C   0  0  0  0  0  0  0  0  0  0  0  0
    2.7016   -2.1896    3.7173 N   0  0  0  0  0  0  0  0  0  0  0  0
    3.8519   -1.7183    3.2273 C   0  0  0  0  0  0  0  0  0  0  0  0
    3.9986   -1.0062    2.1081 N   0  0  0  0  0  0  0  0  0  0  0  0
    2.8822   -0.7398    1.4065 C   0  0  0  0  0  0  0  0  0  0  0  0
    2.9726    0.0574    0.2317 N   0  0  0  0  0  0  0  0  0  0  0  0
    4.1274    0.3979   -0.5101 C   0  0  0  0  0  0  0  0  0  0  0  0
    5.2473   -0.4385   -0.5909 C   0  0  0  0  0  0  0  0  0  0  0  0
    6.3430   -0.1043   -1.3924 C   0  0  0  0  0  0  0  0  0  0  0  0
    6.3237    1.0651   -2.1489 C   0  0  0  0  0  0  0  0  0  0  0  0
    5.2032    1.8931   -2.1120 C   0  0  0  0  0  0  0  0  0  0  0  0
    5.1682    3.0858   -2.9019 C   0  0  0  0  0  0  0  0  0  0  0  0
    5.1405    4.0860   -3.5661 C   0  0  0  0  0  0  0  0  0  0  0  0
    4.1092    1.5536   -1.3079 C   0  0  0  0  0  0  0  0  0  0  0  0
    1.6144   -1.2057    1.8138 C   0  0  0  0  0  0  0  0  0  0  0  0
    0.3990   -1.0001    1.1049 C   0  0  0  0  0  0  0  0  0  0  0  0
   -0.8138   -1.4947    1.5872 C   0  0  0  0  0  0  0  0  0  0  0  0
   -2.0271   -1.3465    0.9733 O   0  0  0  0  0  0  0  0  0  0  0  0
   -2.0643   -0.6620   -0.2778 C   0  0  0  0  0  0  0  0  0  0  0  0
   -3.5082   -0.6491   -0.7780 C   0  0  0  0  0  0  0  0  0  0  0  0
   -3.6184    0.0669   -2.0063 O   0  0  0  0  0  0  0  0  0  0  0  0
   -3.8951    1.4635   -1.8452 C   0  0  0  0  0  0  0  0  0  0  0  0
   -5.3914    1.7353   -1.6586 C   0  0  0  0  0  0  0  0  0  0  0  0
   -6.0759    1.5203   -2.8963 O   0  0  0  0  0  0  0  0  0  0  0  0
   -7.4791    1.6975   -2.7609 C   0  0  0  0  0  0  0  0  0  0  0  0
   -2.4946   -3.5446    2.6865 H   0  0  0  0  0  0  0  0  0  0  0  0
   -1.9493   -3.2147    4.3383 H   0  0  0  0  0  0  0  0  0  0  0  0
   -2.8511   -1.9750    3.4636 H   0  0  0  0  0  0  0  0  0  0  0  0
    0.3846   -2.9825    4.4073 H   0  0  0  0  0  0  0  0  0  0  0  0
    4.7515   -1.9317    3.7941 H   0  0  0  0  0  0  0  0  0  0  0  0
    2.3530    0.8538    0.3352 H   0  0  0  0  0  0  0  0  0  0  0  0
    5.2792   -1.3705   -0.0325 H   0  0  0  0  0  0  0  0  0  0  0  0
    7.2056   -0.7639   -1.4294 H   0  0  0  0  0  0  0  0  0  0  0  0
    7.1780    1.3176   -2.7720 H   0  0  0  0  0  0  0  0  0  0  0  0
    5.1190    4.9714   -4.1576 H   0  0  0  0  0  0  0  0  0  0  0  0
    3.2375    2.2027   -1.3048 H   0  0  0  0  0  0  0  0  0  0  0  0
    0.4373   -0.4644    0.1620 H   0  0  0  0  0  0  0  0  0  0  0  0
   -1.4361   -1.1709   -1.0188 H   0  0  0  0  0  0  0  0  0  0  0  0
   -1.7061    0.3670   -0.1593 H   0  0  0  0  0  0  0  0  0  0  0  0
   -3.8277   -1.6803   -0.9663 H   0  0  0  0  0  0  0  0  0  0  0  0
   -4.1868   -0.2551   -0.0126 H   0  0  0  0  0  0  0  0  0  0  0  0
   -3.3210    1.8665   -1.0036 H   0  0  0  0  0  0  0  0  0  0  0  0
   -3.5469    1.9564   -2.7591 H   0  0  0  0  0  0  0  0  0  0  0  0
   -5.8163    1.0756   -0.8952 H   0  0  0  0  0  0  0  0  0  0  0  0
   -5.5350    2.7789   -1.3576 H   0  0  0  0  0  0  0  0  0  0  0  0
   -7.8901    0.9704   -2.0541 H   0  0  0  0  0  0  0  0  0  0  0  0
   -7.7071    2.7152   -2.4302 H   0  0  0  0  0  0  0  0  0  0  0  0
   -7.9432    1.5351   -3.7373 H   0  0  0  0  0  0  0  0  0  0  0  0
  1  2  1  0
  2  3  2  0
  3  4  1  0
  4  5  2  0
  5  6  1  0
  6  7  2  0
  7  8  1  0
  8  9  1  0
  9 10  1  0
 10 11  2  0
 11 12  1  0
 12 13  2  0
 13 14  1  0
 14 15  1  0
 15 16  3  0
 14 17  2  0
  8 18  2  0
 18 19  1  0
 19 20  2  0
 20 21  1  0
 21 22  1  0
 22 23  1  0
 23 24  1  0
 24 25  1  0
 25 26  1  0
 26 27  1  0
 27 28  1  0
 20  2  1  0
 18  4  1  0
 17 10  1  0
  1 29  1  0
  1 30  1  0
  1 31  1  0
  3 32  1  0
  6 33  1  0
  9 34  1  0
 11 35  1  0
 12 36  1  0
 13 37  1  0
 16 38  1  0
 17 39  1  0
 19 40  1  0
 22 41  1  0
 22 42  1  0
 23 43  1  0
 23 44  1  0
 25 45  1  0
 25 46  1  0
 26 47  1  0
 26 48  1  0
 28 49  1  0
 28 50  1  0
 28 51  1  0
M  END
$$$$
