
     RDKit          3D

 55 58  0  0  0  0  0  0  0  0999 V2000
   -1.6264   -4.0281   -1.1373 C   0  0  0  0  0  0  0  0  0  0  0  0
   -1.3857   -2.8003   -0.4630 O   0  0  0  0  0  0  0  0  0  0  0  0
   -0.0911   -2.3500   -0.4044 C   0  0  0  0  0  0  0  0  0  0  0  0
    1.0011   -2.9819   -1.0079 C   0  0  0  0  0  0  0  0  0  0  0  0
    2.2913   -2.4730   -0.9142 C   0  0  0  0  0  0  0  0  0  0  0  0
    3.2774   -3.1336   -1.5253 N   0  0  0  0  0  0  0  0  0  0  0  0
    4.5059   -2.6172   -1.4202 C   0  0  0  0  0  0  0  0  0  0  0  0
    4.8404   -1.5117   -0.7516 N   0  0  0  0  0  0  0  0  0  0  0  0
    3.8470   -0.8571   -0.1244 C   0  0  0  0  0  0  0  0  0  0  0  0
    4.1541    0.3041    0.6396 N   0  0  0  0  0  0  0  0  0  0  0  0
    5.3460    1.0651    0.6288 C   0  0  0  0  0  0  0  0  0  0  0  0
    5.6722    1.8318    1.7606 C   0  0  0  0  0  0  0  0  0  0  0  0
    6.8062    2.6488    1.7755 C   0  0  0  0  0  0  0  0  0  0  0  0
    7.6113    2.7265    0.6461 C   0  0  0  0  0  0  0  0  0  0  0  0
    8.6943    3.5171    0.6795 F   0  0  0  0  0  0  0  0  0  0  0  0
    7.2868    2.0067   -0.4991 C   0  0  0  0  0  0  0  0  0  0  0  0
    8.2657    2.1212   -1.9119 Cl  0  0  0  0  0  0  0  0  0  0  0  0
    6.1520    1.1914   -0.5118 C   0  0  0  0  0  0  0  0  0  0  0  0
    2.5084   -1.2972   -0.1848 C   0  0  0  0  0  0  0  0  0  0  0  0
    1.4063   -0.6412    0.4190 C   0  0  0  0  0  0  0  0  0  0  0  0
    0.1154   -1.1570    0.3006 C   0  0  0  0  0  0  0  0  0  0  0  0
   -0.9816   -0.5816    0.8867 O   0  0  0  0  0  0  0  0  0  0  0  0
   -0.9783    0.8449    0.9627 C   0  0  0  0  0  0  0  0  0  0  0  0
   -2.4123    1.3243    1.1796 C   0  0  0  0  0  0  0  0  0  0  0  0
   -3.3172    0.9402   -0.0006 C   0  0  0  0  0  0  0  0  0  0  0  0
   -4.6711    1.4957    0.1508 N   0  0  0  0  0  0  0  0  0  0  0  0
   -5.3622    1.5281   -1.1587 C   0  0  0  0  0  0  0  0  0  0  0  0
   -6.8865    1.6126   -0.9956 C   0  0  0  0  0  0  0  0  0  0  0  0
   -7.4405    0.4538   -0.3563 O   0  0  0  0  0  0  0  0  0  0  0  0
   -6.5114   -0.2004    0.5181 C   0  0  0  0  0  0  0  0  0  0  0  0
   -5.4895    0.7634    1.1453 C   0  0  0  0  0  0  0  0  0  0  0  0
   -2.6948   -4.2515   -1.0522 H   0  0  0  0  0  0  0  0  0  0  0  0
   -1.0758   -4.8517   -0.6704 H   0  0  0  0  0  0  0  0  0  0  0  0
   -1.3878   -3.9444   -2.2029 H   0  0  0  0  0  0  0  0  0  0  0  0
    0.8749   -3.8981   -1.5780 H   0  0  0  0  0  0  0  0  0  0  0  0
    5.3073   -3.1480   -1.9222 H   0  0  0  0  0  0  0  0  0  0  0  0
    3.8096    0.1642    1.5845 H   0  0  0  0  0  0  0  0  0  0  0  0
    5.0468    1.7964    2.6491 H   0  0  0  0  0  0  0  0  0  0  0  0
    7.0625    3.2279    2.6572 H   0  0  0  0  0  0  0  0  0  0  0  0
    5.8983    0.6577   -1.4230 H   0  0  0  0  0  0  0  0  0  0  0  0
    1.5744    0.2722    0.9807 H   0  0  0  0  0  0  0  0  0  0  0  0
   -0.5774    1.2911    0.0432 H   0  0  0  0  0  0  0  0  0  0  0  0
   -0.3668    1.1601    1.8166 H   0  0  0  0  0  0  0  0  0  0  0  0
   -2.4079    2.4140    1.3072 H   0  0  0  0  0  0  0  0  0  0  0  0
   -2.7929    0.8829    2.1079 H   0  0  0  0  0  0  0  0  0  0  0  0
   -2.8590    1.3536   -0.9103 H   0  0  0  0  0  0  0  0  0  0  0  0
   -3.3573   -0.1494   -0.1319 H   0  0  0  0  0  0  0  0  0  0  0  0
   -5.0051    2.3936   -1.7289 H   0  0  0  0  0  0  0  0  0  0  0  0
   -5.1285    0.6230   -1.7362 H   0  0  0  0  0  0  0  0  0  0  0  0
   -7.1696    2.4961   -0.4107 H   0  0  0  0  0  0  0  0  0  0  0  0
   -7.3652    1.7056   -1.9758 H   0  0  0  0  0  0  0  0  0  0  0  0
   -6.0037   -0.9895   -0.0491 H   0  0  0  0  0  0  0  0  0  0  0  0
   -7.0945   -0.6916    1.3044 H   0  0  0  0  0  0  0  0  0  0  0  0
   -6.0406    1.5219    1.7163 H   0  0  0  0  0  0  0  0  0  0  0  0
   -4.8751    0.2186    1.8701 H   0  0  0  0  0  0  0  0  0  0  0  0
  1  2  1  0
  2  3  1  0
  3  4  2  0
  4  5  1  0
  5  6  2  0
  6  7  1  0
  7  8  2  0
  8  9  1  0
  9 10  1  0
 10 11  1  0
 11 12  2  0
 12 13  1  0
 13 14  2  0
 14 15  1  0
 14 16  1  0
 16 17  1  0
 16 18  2  0
  9 19  2  0
 19 20  1  0
 20 21  2  0
 21 22  1  0
 22 23  1  0
 23 24  1  0
 24 25  1  0
 25 26  1  0
 26 27  1  0
 27 28  1  0
 28 29  1  0
 29 30  1  0
 30 31  1  0
 21  3  1  0
 31 26  1  0
 19  5  1  0
 18 11  1  0
  1 32  1  0
  1 33  1  0
  1 34  1  0
  4 35  1  0
  7 36  1  0
 10 37  1  0
 12 38  1  0
 13 39  1  0
 18 40  1  0
 20 41  1  0
 23 42  1  0
 23 43  1  0
 24 44  1  0
 24 45  1  0
 25 46  1  0
 25 47  1  0
 27 48  1  0
 27 49  1  0
 28 50  1  0
 28 51  1  0
 30 52  1  0
 30 53  1  0
 31 54  1  0
 31 55  1  0
M  END
$$$$
